
     RDKit          3D

 78 84  0  0  0  0  0  0  0  0999 V2000
   -2.9010   -2.9600  -10.1540 C   0  0  1  0  0  0  0  0  0  0  0  0
   -2.0170   -2.9870  -11.4000 C   0  0  1  0  0  0  0  0  0  0  0  0
   -0.5560   -3.0090  -10.8790 C   0  0  2  0  0  0  0  0  0  0  0  0
   -0.3360   -1.8200   -9.9660 C   0  0  1  0  0  0  0  0  0  0  0  0
   -1.2430   -1.9880   -8.7340 C   0  0  1  0  0  0  0  0  0  0  0  0
   -1.1550   -0.8610   -7.7370 C   0  0  0  0  0  0  0  0  0  0  0  0
   -2.7770   -4.2020   -9.4900 O   0  0  0  0  0  0  0  0  0  0  0  0
   -2.2050   -4.2420  -12.0660 O   0  0  0  0  0  0  0  0  0  0  0  0
    0.2960   -2.9340  -12.0590 O   0  0  0  0  0  0  0  0  0  0  0  0
    1.0130   -1.8840   -9.4620 O   0  0  0  0  0  0  0  0  0  0  0  0
   -2.5660   -1.8710   -9.3020 O   0  0  0  0  0  0  0  0  0  0  0  0
   -1.3380    0.4330   -8.3260 O   0  0  0  0  0  0  0  0  0  0  0  0
    1.8750   -1.0430  -10.2290 C   0  0  2  0  0  0  0  0  0  0  0  0
    3.2990   -1.6040  -10.1120 C   0  0  1  0  0  0  0  0  0  0  0  0
    3.7990   -1.5250   -8.6670 C   0  0  2  0  0  0  0  0  0  0  0  0
    3.7490   -0.0660   -8.2030 C   0  0  1  0  0  0  0  0  0  0  0  0
    2.2990    0.4690   -8.3470 C   0  0  1  0  0  0  0  0  0  0  0  0
    2.1590    1.9390   -7.9900 C   0  0  0  0  0  0  0  0  0  0  0  0
    3.3120   -2.9010  -10.6650 O   0  0  0  0  0  0  0  0  0  0  0  0
    5.1710   -1.9890   -8.6190 O   0  0  0  0  0  0  0  0  0  0  0  0
    4.0950   -0.0130   -6.7870 O   0  0  0  0  0  0  0  0  0  0  0  0
    1.8480    0.2710   -9.7080 O   0  0  0  0  0  0  0  0  0  0  0  0
    0.7570    2.2980   -8.0460 O   0  0  0  0  0  0  0  0  0  0  0  0
    5.4330    0.3660   -6.5170 C   0  0  2  0  0  0  0  0  0  0  0  0
    5.8120   -0.2090   -5.1820 C   0  0  1  0  0  0  0  0  0  0  0  0
    5.0050    0.4760   -4.0690 C   0  0  2  0  0  0  0  0  0  0  0  0
    5.2020    1.9730   -4.1390 C   0  0  1  0  0  0  0  0  0  0  0  0
    4.7270    2.4220   -5.5160 C   0  0  1  0  0  0  0  0  0  0  0  0
    4.8430    3.9200   -5.8000 C   0  0  0  0  0  0  0  0  0  0  0  0
    5.7050   -1.6380   -5.1580 O   0  0  0  0  0  0  0  0  0  0  0  0
    5.4600   -0.0260   -2.7850 O   0  0  0  0  0  0  0  0  0  0  0  0
    4.2810    2.5050   -3.1510 O   0  0  0  0  0  0  0  0  0  0  0  0
    5.5420    1.7860   -6.5320 O   0  0  0  0  0  0  0  0  0  0  0  0
    6.1960    4.3310   -5.5630 O   0  0  0  0  0  0  0  0  0  0  0  0
    4.8100    3.3940   -2.2260 C   0  0  2  0  0  0  0  0  0  0  0  0
    4.3940    2.9740   -0.8320 C   0  0  1  0  0  0  0  0  0  0  0  0
    2.8750    3.0120   -0.6740 C   0  0  2  0  0  0  0  0  0  0  0  0
    2.4280    4.4330   -0.9730 C   0  0  1  0  0  0  0  0  0  0  0  0
    2.8550    4.8240   -2.3660 C   0  0  1  0  0  0  0  0  0  0  0  0
    2.5170    6.2760   -2.6770 C   0  0  0  0  0  0  0  0  0  0  0  0
    4.8730    1.6240   -0.6460 O   0  0  0  0  0  0  0  0  0  0  0  0
    2.4930    2.6440    0.6600 O   0  0  0  0  0  0  0  0  0  0  0  0
    0.9740    4.4850   -0.9470 O   0  0  0  0  0  0  0  0  0  0  0  0
    4.2880    4.7060   -2.4710 O   0  0  0  0  0  0  0  0  0  0  0  0
    2.8330    6.5910   -4.0420 O   0  0  0  0  0  0  0  0  0  0  0  0
    0.4210    5.1560    0.2080 C   0  0  2  0  0  0  0  0  0  0  0  0
   -0.7350    4.3170    0.7290 C   0  0  1  0  0  0  0  0  0  0  0  0
   -1.7980    4.1540   -0.3270 C   0  0  2  0  0  0  0  0  0  0  0  0
   -2.3260    5.5240   -0.7470 C   0  0  1  0  0  0  0  0  0  0  0  0
   -1.1460    6.4130   -1.1850 C   0  0  1  0  0  0  0  0  0  0  0  0
   -1.5590    7.8900   -1.2670 C   0  0  0  0  0  0  0  0  0  0  0  0
   -0.2170    3.0210    1.1010 O   0  0  0  0  0  0  0  0  0  0  0  0
   -2.9250    3.4190    0.2350 O   0  0  0  0  0  0  0  0  0  0  0  0
   -3.2030    5.4480   -1.8460 O   0  0  0  0  0  0  0  0  0  0  0  0
   -0.1010    6.4190   -0.2080 O   0  0  0  0  0  0  0  0  0  0  0  0
   -0.4800    8.6010   -1.9410 O   0  0  0  0  0  0  0  0  0  0  0  0
   -4.5980    5.6600   -1.5290 C   0  0  2  0  0  0  0  0  0  0  0  0
   -5.4230    4.7740   -2.4200 C   0  0  1  0  0  0  0  0  0  0  0  0
   -5.2980    5.1100   -3.8850 C   0  0  2  0  0  0  0  0  0  0  0  0
   -5.6580    6.5780   -4.0640 C   0  0  1  0  0  0  0  0  0  0  0  0
   -4.7850    7.4420   -3.1530 C   0  0  1  0  0  0  0  0  0  0  0  0
   -5.2640    8.8970   -3.2350 C   0  0  0  0  0  0  0  0  0  0  0  0
   -5.0820    3.4060   -2.2190 O   0  0  0  0  0  0  0  0  0  0  0  0
   -6.2910    4.3290   -4.5810 O   0  0  0  0  0  0  0  0  0  0  0  0
   -5.3520    6.9180   -5.4200 O   0  0  0  0  0  0  0  0  0  0  0  0
   -4.9330    7.0290   -1.7830 O   0  0  0  0  0  0  0  0  0  0  0  0
   -4.2860    9.7380   -2.6510 O   0  0  0  0  0  0  0  0  0  0  0  0
   -6.4100    7.2480   -6.3220 C   0  0  2  0  0  0  0  0  0  0  0  0
   -6.1290    6.7610   -7.7430 C   0  0  1  0  0  0  0  0  0  0  0  0
   -4.8620    7.4120   -8.2770 C   0  0  2  0  0  0  0  0  0  0  0  0
   -5.1630    8.8980   -8.3100 C   0  0  1  0  0  0  0  0  0  0  0  0
   -5.5100    9.4770   -6.9370 C   0  0  1  0  0  0  0  0  0  0  0  0
   -6.1840   10.8190   -7.2070 C   0  0  0  0  0  0  0  0  0  0  0  0
   -5.8560    5.3600   -7.7270 O   0  0  0  0  0  0  0  0  0  0  0  0
   -4.6110    6.9520   -9.6190 O   0  0  0  0  0  0  0  0  0  0  0  0
   -4.0040    9.5510   -8.8280 O   0  0  0  0  0  0  0  0  0  0  0  0
   -6.5390    8.6720   -6.3480 O   0  0  0  0  0  0  0  0  0  0  0  0
   -6.0230   11.5280   -5.9720 O   0  0  0  0  0  0  0  0  0  0  0  0
  2  1  1  0
  3  2  1  0
  4  3  1  0
  5  4  1  0
  5  6  1  1
  1  7  1  1
  2  8  1  1
  3  9  1  6
  4 10  1  1
 11  5  1  0
 11  1  1  0
 12  6  1  0
 13 10  1  1
 14 13  1  0
 15 14  1  0
 16 15  1  0
 17 16  1  0
 17 18  1  6
 14 19  1  1
 15 20  1  6
 16 21  1  1
 22 17  1  0
 22 13  1  0
 23 18  1  0
 24 21  1  1
 25 24  1  0
 26 25  1  0
 27 26  1  0
 28 27  1  0
 28 29  1  1
 25 30  1  6
 26 31  1  1
 27 32  1  1
 33 28  1  0
 33 24  1  0
 34 29  1  0
 35 32  1  6
 36 35  1  0
 37 36  1  0
 38 37  1  0
 39 38  1  0
 39 40  1  1
 36 41  1  6
 37 42  1  1
 38 43  1  6
 44 39  1  0
 44 35  1  0
 45 40  1  0
 46 43  1  6
 47 46  1  0
 48 47  1  0
 49 48  1  0
 50 49  1  0
 50 51  1  1
 47 52  1  6
 48 53  1  1
 49 54  1  6
 55 46  1  0
 55 50  1  0
 56 51  1  0
 57 54  1  6
 58 57  1  0
 59 58  1  0
 60 59  1  0
 61 60  1  0
 61 62  1  1
 58 63  1  6
 59 64  1  6
 60 65  1  6
 66 61  1  0
 66 57  1  0
 67 62  1  0
 68 65  1  1
 69 68  1  0
 70 69  1  0
 71 70  1  0
 72 71  1  0
 72 73  1  6
 69 74  1  1
 70 75  1  6
 71 76  1  1
 77 72  1  0
 77 68  1  0
 78 73  1  0
M  END
$$$$
