
     RDKit          3D

 77 84  0  0  0  0  0  0  0  0999 V2000
  -63.8710  101.0850   25.3370 C   0  0  2  0  0  0  0  0  0  0  0  0
  -65.1540  100.3400   24.9430 C   0  0  1  0  0  0  0  0  0  0  0  0
  -65.7590   99.6300   26.1520 C   0  0  2  0  0  0  0  0  0  0  0  0
  -64.7050   98.7000   26.7630 C   0  0  1  0  0  0  0  0  0  0  0  0
  -63.4730   99.5320   27.0890 C   0  0  1  0  0  0  0  0  0  0  0  0
  -62.3990   98.6770   27.7610 C   0  0  0  0  0  0  0  0  0  0  0  0
  -66.1270  101.2920   24.4780 O   0  0  0  0  0  0  0  0  0  0  0  0
  -66.9410   98.9620   25.6870 O   0  0  0  0  0  0  0  0  0  0  0  0
  -65.1480   98.1090   28.0070 O   0  0  0  0  0  0  0  0  0  0  0  0
  -62.9690  100.1310   25.8910 O   0  0  0  0  0  0  0  0  0  0  0  0
  -61.3800   98.3700   26.8130 O   0  0  0  0  0  0  0  0  0  0  0  0
  -67.9670   98.7400   26.6470 C   0  0  2  0  0  0  0  0  0  0  0  0
  -69.1070   97.9040   26.0370 C   0  0  1  0  0  0  0  0  0  0  0  0
  -69.9690   98.6990   25.0950 C   0  0  2  0  0  0  0  0  0  0  0  0
  -70.4010   99.9960   25.7750 C   0  0  1  0  0  0  0  0  0  0  0  0
  -69.2130  100.7580   26.3160 C   0  0  1  0  0  0  0  0  0  0  0  0
  -69.6240  102.0030   27.0990 C   0  0  0  0  0  0  0  0  0  0  0  0
  -68.5590   96.7410   25.4200 O   0  0  0  0  0  0  0  0  0  0  0  0
  -71.1650   97.9640   24.7690 O   0  0  0  0  0  0  0  0  0  0  0  0
  -71.0470  100.7860   24.8200 O   0  0  0  0  0  0  0  0  0  0  0  0
  -68.4850   99.9520   27.2090 O   0  0  0  0  0  0  0  0  0  0  0  0
  -68.4220  102.6960   27.5110 O   0  0  0  0  0  0  0  0  0  0  0  0
  -72.4550  100.7980   24.9700 C   0  0  2  0  0  0  0  0  0  0  0  0
  -73.1200  101.1580   23.6580 C   0  0  1  0  0  0  0  0  0  0  0  0
  -72.7530  102.5660   23.2460 C   0  0  2  0  0  0  0  0  0  0  0  0
  -73.2000  103.5180   24.3140 C   0  0  1  0  0  0  0  0  0  0  0  0
  -72.4470  103.1390   25.5940 C   0  0  1  0  0  0  0  0  0  0  0  0
  -72.7580  104.0750   26.7780 C   0  0  0  0  0  0  0  0  0  0  0  0
  -72.6750  100.2910   22.6390 O   0  0  0  0  0  0  0  0  0  0  0  0
  -73.3770  102.9000   22.0260 O   0  0  0  0  0  0  0  0  0  0  0  0
  -72.8590  104.8260   23.8750 O   0  0  0  0  0  0  0  0  0  0  0  0
  -72.7670  101.7740   25.9490 O   0  0  0  0  0  0  0  0  0  0  0  0
  -74.0410  103.7510   27.3640 O   0  0  0  0  0  0  0  0  0  0  0  0
  -74.0170  105.6080   23.6010 C   0  0  2  0  0  0  0  0  0  0  0  0
  -73.7380  106.5030   22.4090 C   0  0  1  0  0  0  0  0  0  0  0  0
  -72.5670  107.3780   22.7060 C   0  0  2  0  0  0  0  0  0  0  0  0
  -72.7530  108.1950   23.9630 C   0  0  1  0  0  0  0  0  0  0  0  0
  -73.2240  107.3030   25.1120 C   0  0  1  0  0  0  0  0  0  0  0  0
  -73.6530  108.1490   26.2950 C   0  0  0  0  0  0  0  0  0  0  0  0
  -73.3450  105.6930   21.3170 O   0  0  0  0  0  0  0  0  0  0  0  0
  -72.3100  108.2150   21.5880 O   0  0  0  0  0  0  0  0  0  0  0  0
  -71.4660  108.7410   24.2800 O   0  0  0  0  0  0  0  0  0  0  0  0
  -74.3110  106.4410   24.7340 O   0  0  0  0  0  0  0  0  0  0  0  0
  -73.8950  107.2580   27.3710 O   0  0  0  0  0  0  0  0  0  0  0  0
  -71.5010  110.1030   24.7610 C   0  0  2  0  0  0  0  0  0  0  0  0
  -70.3310  110.8820   24.1670 C   0  0  1  0  0  0  0  0  0  0  0  0
  -69.0510  110.2010   24.5580 C   0  0  2  0  0  0  0  0  0  0  0  0
  -68.9220  110.0490   26.0680 C   0  0  1  0  0  0  0  0  0  0  0  0
  -70.1740  109.4350   26.6730 C   0  0  1  0  0  0  0  0  0  0  0  0
  -70.1370  109.5920   28.2010 C   0  0  0  0  0  0  0  0  0  0  0  0
  -70.4200  110.8490   22.7410 O   0  0  0  0  0  0  0  0  0  0  0  0
  -67.9390  110.9450   24.1050 O   0  0  0  0  0  0  0  0  0  0  0  0
  -67.7330  109.2460   26.3050 O   0  0  0  0  0  0  0  0  0  0  0  0
  -71.3550  110.1230   26.1950 O   0  0  0  0  0  0  0  0  0  0  0  0
  -70.9840  108.6080   28.7910 O   0  0  0  0  0  0  0  0  0  0  0  0
  -66.8270  109.7570   27.2740 C   0  0  2  0  0  0  0  0  0  0  0  0
  -65.4700  109.9500   26.6090 C   0  0  1  0  0  0  0  0  0  0  0  0
  -64.9860  108.6200   26.0280 C   0  0  2  0  0  0  0  0  0  0  0  0
  -64.9210  107.5860   27.1330 C   0  0  1  0  0  0  0  0  0  0  0  0
  -66.2650  107.4860   27.8460 C   0  0  1  0  0  0  0  0  0  0  0  0
  -66.1070  106.5870   29.0600 C   0  0  0  0  0  0  0  0  0  0  0  0
  -65.6060  110.8760   25.5230 O   0  0  0  0  0  0  0  0  0  0  0  0
  -63.6920  108.8210   25.4820 O   0  0  0  0  0  0  0  0  0  0  0  0
  -64.5600  106.3190   26.6110 O   0  0  0  0  0  0  0  0  0  0  0  0
  -66.7020  108.7950   28.3320 O   0  0  0  0  0  0  0  0  0  0  0  0
  -67.3790  106.3700   29.6210 O   0  0  0  0  0  0  0  0  0  0  0  0
  -63.1990  106.0530   26.8100 C   0  0  2  0  0  0  0  0  0  0  0  0
  -62.6170  105.4350   25.5740 C   0  0  1  0  0  0  0  0  0  0  0  0
  -63.3110  104.1300   25.2450 C   0  0  2  0  0  0  0  0  0  0  0  0
  -63.4000  103.2300   26.4690 C   0  0  1  0  0  0  0  0  0  0  0  0
  -63.5280  103.8230   27.6710 C   0  0  1  0  0  0  0  0  0  0  0  0
  -63.6110  102.9390   28.8840 C   0  0  0  0  0  0  0  0  0  0  0  0
  -62.7830  106.3540   24.4820 O   0  0  0  0  0  0  0  0  0  0  0  0
  -62.6010  103.5110   24.1800 O   0  0  0  0  0  0  0  0  0  0  0  0
  -64.2200  102.0310   26.3530 O   0  0  0  0  0  0  0  0  0  0  0  0
  -63.0410  105.1720   27.8990 O   0  0  0  0  0  0  0  0  0  0  0  0
  -62.2720  102.6470   29.2890 O   0  0  0  0  0  0  0  0  0  0  0  0
  2  1  1  0
  3  2  1  0
  3  4  1  6
  5  4  1  0
  5  6  1  6
  2  7  1  1
  8  3  1  0
  4  9  1  1
 10  5  1  0
  1 10  1  1
 11  6  1  0
 12  8  1  0
 13 12  1  0
 14 13  1  0
 15 14  1  0
 15 16  1  6
 16 17  1  1
 13 18  1  6
 14 19  1  1
 20 15  1  0
 21 16  1  0
 12 21  1  6
 22 17  1  0
 23 20  1  0
 24 23  1  0
 25 24  1  0
 26 25  1  0
 26 27  1  1
 27 28  1  1
 24 29  1  6
 25 30  1  6
 31 26  1  0
 32 27  1  0
 23 32  1  1
 33 28  1  0
 34 31  1  0
 35 34  1  0
 36 35  1  0
 37 36  1  0
 37 38  1  1
 38 39  1  1
 35 40  1  6
 36 41  1  6
 42 37  1  0
 43 38  1  0
 34 43  1  1
 44 39  1  0
 45 42  1  0
 46 45  1  0
 47 46  1  0
 48 47  1  0
 48 49  1  6
 49 50  1  1
 46 51  1  6
 47 52  1  1
 53 48  1  0
 45 54  1  1
 54 49  1  0
 55 50  1  0
 56 53  1  0
 57 56  1  0
 58 57  1  0
 59 58  1  0
 59 60  1  6
 60 61  1  1
 57 62  1  6
 58 63  1  1
 64 59  1  0
 65 60  1  0
 56 65  1  1
 66 61  1  0
 67 64  1  0
 68 67  1  0
 69 68  1  0
 70 69  1  0
 70 71  1  1
 71 72  1  1
 68 73  1  6
 69 74  1  6
 75 70  1  0
 75  1  1  0
 67 76  1  1
 76 71  1  0
 77 72  1  0
M  END
$$$$
