
     RDKit          3D

 66 72  0  0  0  0  0  0  0  0999 V2000
   25.2120   37.5390  102.2850 C   0  0  2  0  0  0  0  0  0  0  0  0
   25.5340   38.2790  101.0140 C   0  0  1  0  0  0  0  0  0  0  0  0
   26.9730   38.7560  101.0480 C   0  0  2  0  0  0  0  0  0  0  0  0
   27.2470   39.6200  102.2620 C   0  0  1  0  0  0  0  0  0  0  0  0
   26.8050   38.8720  103.5180 C   0  0  1  0  0  0  0  0  0  0  0  0
   26.8670   39.8010  104.7230 C   0  0  0  0  0  0  0  0  0  0  0  0
   25.3690   37.3580   99.9280 O   0  0  0  0  0  0  0  0  0  0  0  0
   27.2450   39.5040   99.8750 O   0  0  0  0  0  0  0  0  0  0  0  0
   28.6780   39.8610  102.3310 O   0  0  0  0  0  0  0  0  0  0  0  0
   25.4720   38.3690  103.4110 O   0  0  0  0  0  0  0  0  0  0  0  0
   26.7090   39.0290  105.9160 O   0  0  0  0  0  0  0  0  0  0  0  0
   29.0790   41.2290  102.5990 C   0  0  2  0  0  0  0  0  0  0  0  0
   30.0980   41.6690  101.5690 C   0  0  1  0  0  0  0  0  0  0  0  0
   31.2500   40.6680  101.5030 C   0  0  2  0  0  0  0  0  0  0  0  0
   31.8400   40.3380  102.8700 C   0  0  1  0  0  0  0  0  0  0  0  0
   30.7520   40.2360  103.9410 C   0  0  1  0  0  0  0  0  0  0  0  0
   31.3500   40.2650  105.3300 C   0  0  0  0  0  0  0  0  0  0  0  0
   29.4630   41.7490  100.3020 O   0  0  0  0  0  0  0  0  0  0  0  0
   32.2790   41.1760  100.6660 O   0  0  0  0  0  0  0  0  0  0  0  0
   32.4520   39.0480  102.7630 O   0  0  0  0  0  0  0  0  0  0  0  0
   29.7810   41.2910  103.8310 O   0  0  0  0  0  0  0  0  0  0  0  0
   30.7530   41.3640  106.0140 O   0  0  0  0  0  0  0  0  0  0  0  0
   33.8100   38.9950  103.2200 C   0  0  2  0  0  0  0  0  0  0  0  0
   34.6350   38.2770  102.1750 C   0  0  1  0  0  0  0  0  0  0  0  0
   34.0820   36.8770  101.9830 C   0  0  2  0  0  0  0  0  0  0  0  0
   34.1000   36.1170  103.2800 C   0  0  1  0  0  0  0  0  0  0  0  0
   33.3470   36.9180  104.3060 C   0  0  1  0  0  0  0  0  0  0  0  0
   33.3420   36.2270  105.6560 C   0  0  0  0  0  0  0  0  0  0  0  0
   34.5740   39.0060  100.9390 O   0  0  0  0  0  0  0  0  0  0  0  0
   34.8580   36.1650  101.0410 O   0  0  0  0  0  0  0  0  0  0  0  0
   33.3980   34.9060  103.0850 O   0  0  0  0  0  0  0  0  0  0  0  0
   33.8940   38.2320  104.4240 O   0  0  0  0  0  0  0  0  0  0  0  0
   33.2790   37.2540  106.6710 O   0  0  0  0  0  0  0  0  0  0  0  0
   34.1930   33.7650  103.3010 C   0  0  2  0  0  0  0  0  0  0  0  0
   34.1520   32.9190  102.0530 C   0  0  1  0  0  0  0  0  0  0  0  0
   32.7790   32.2880  101.8330 C   0  0  2  0  0  0  0  0  0  0  0  0
   32.2480   31.5850  103.0590 C   0  0  1  0  0  0  0  0  0  0  0  0
   32.3930   32.4910  104.2870 C   0  0  1  0  0  0  0  0  0  0  0  0
   32.1410   31.7160  105.5600 C   0  0  0  0  0  0  0  0  0  0  0  0
   34.4010   33.8180  100.9890 O   0  0  0  0  0  0  0  0  0  0  0  0
   32.8180   31.3410  100.7650 O   0  0  0  0  0  0  0  0  0  0  0  0
   30.8610   31.3210  102.7930 O   0  0  0  0  0  0  0  0  0  0  0  0
   33.7140   33.0300  104.4250 O   0  0  0  0  0  0  0  0  0  0  0  0
   32.5990   32.5320  106.6350 O   0  0  0  0  0  0  0  0  0  0  0  0
   30.3860   30.0280  103.1910 C   0  0  2  0  0  0  0  0  0  0  0  0
   29.4830   29.4340  102.1200 C   0  0  1  0  0  0  0  0  0  0  0  0
   28.4110   30.4620  101.7290 C   0  0  2  0  0  0  0  0  0  0  0  0
   27.6330   30.9850  102.9430 C   0  0  1  0  0  0  0  0  0  0  0  0
   28.5560   31.2250  104.1650 C   0  0  1  0  0  0  0  0  0  0  0  0
   27.7630   31.3310  105.4630 C   0  0  0  0  0  0  0  0  0  0  0  0
   30.2510   29.0330  100.9760 O   0  0  0  0  0  0  0  0  0  0  0  0
   27.4950   29.9160  100.7700 O   0  0  0  0  0  0  0  0  0  0  0  0
   27.0030   32.2280  102.5620 O   0  0  0  0  0  0  0  0  0  0  0  0
   29.5490   30.2040  104.3280 O   0  0  0  0  0  0  0  0  0  0  0  0
   28.1780   32.5330  106.1270 O   0  0  0  0  0  0  0  0  0  0  0  0
   25.6330   32.3290  102.9480 C   0  0  2  0  0  0  0  0  0  0  0  0
   24.8280   32.8930  101.7840 C   0  0  1  0  0  0  0  0  0  0  0  0
   25.3870   34.2610  101.4220 C   0  0  2  0  0  0  0  0  0  0  0  0
   25.2950   35.1790  102.6110 C   0  0  1  0  0  0  0  0  0  0  0  0
   25.9900   34.5510  103.8020 C   0  0  1  0  0  0  0  0  0  0  0  0
   25.7450   35.4380  105.0090 C   0  0  0  0  0  0  0  0  0  0  0  0
   24.8570   31.9870  100.6570 O   0  0  0  0  0  0  0  0  0  0  0  0
   24.6940   34.8380  100.3200 O   0  0  0  0  0  0  0  0  0  0  0  0
   26.0130   36.3750  102.3280 O   0  0  0  0  0  0  0  0  0  0  0  0
   25.5210   33.2290  104.0640 O   0  0  0  0  0  0  0  0  0  0  0  0
   26.5790   35.0160  106.0800 O   0  0  0  0  0  0  0  0  0  0  0  0
  2  1  1  0
  3  2  1  0
  4  3  1  0
  4  5  1  1
  5  6  1  1
  2  7  1  6
  3  8  1  6
  9  4  1  0
  1 10  1  1
 10  5  1  0
 11  6  1  0
 12  9  1  0
 13 12  1  0
 14 13  1  0
 15 14  1  0
 15 16  1  1
 16 17  1  1
 13 18  1  6
 14 19  1  6
 20 15  1  0
 12 21  1  1
 21 16  1  0
 22 17  1  0
 23 20  1  0
 24 23  1  0
 25 24  1  0
 26 25  1  0
 26 27  1  1
 27 28  1  1
 24 29  1  6
 25 30  1  6
 31 26  1  0
 32 27  1  0
 23 32  1  1
 33 28  1  0
 34 31  1  0
 35 34  1  0
 36 35  1  0
 37 36  1  0
 37 38  1  1
 38 39  1  1
 35 40  1  6
 36 41  1  6
 42 37  1  0
 43 38  1  0
 34 43  1  1
 44 39  1  0
 45 42  1  0
 46 45  1  0
 47 46  1  0
 48 47  1  0
 48 49  1  1
 49 50  1  1
 46 51  1  6
 47 52  1  6
 53 48  1  0
 45 54  1  1
 54 49  1  0
 55 50  1  0
 56 53  1  0
 57 56  1  0
 58 57  1  0
 59 58  1  0
 59 60  1  1
 60 61  1  1
 57 62  1  6
 58 63  1  6
 64 59  1  0
 64  1  1  0
 56 65  1  1
 65 60  1  0
 66 61  1  0
M  END
$$$$
